spec/files/disco_outputs/disco/job-outputs/baseline_scenario/thermal_upgrades.dss
New Line.upgrade_11abf04c-1002-4d48-9f1d-edb4872cf9c31662563454_3067033 bus1=source.1.2.3 bus2=6398a8fa-be81-4773-a837-6cb0c35ad1a4.1.2.3 length=0.6477 units=km geometry=geometry_1 phases=3 normamps=660.0 enabled=Yes
New Line.upgrade_44c05d80-7a90-4229-94f7-0ef2787b2cc71662563454_3297436 bus1=14080f48-4e0d-4ca6-9ed2-7db253f920f4.1.2.3 bus2=9d037967-7ac1-4296-8f87-2d4a842d7a87.1.2.3 length=0.1801368 units=km geometry=geometry_2 phases=3 normamps=640.0 enabled=Yes
New Line.upgrade_44c05d80-7a90-4229-94f7-0ef2787b2cc71662563454_3307438 bus1=14080f48-4e0d-4ca6-9ed2-7db253f920f4.1.2.3 bus2=9d037967-7ac1-4296-8f87-2d4a842d7a87.1.2.3 length=0.1801368 units=km geometry=geometry_2 phases=3 normamps=640.0 enabled=Yes
CalcVoltageBases
Solve